dataConverter/d_n039_all_pst.m
%  File originated from data in PST format: #bus = 39, #line = 46

Bus.con = [ ...
   1        1        1        0;
   2        1        1        0;
   3        1        1        0;
   4        1        1        0;
   5        1        1        0;
   6        1        1        0;
   7        1        1        0;
   8        1        1        0;
   9        1        1        0;
  10        1        1        0;
  11        1        1        0;
  12        1        1        0;
  13        1        1        0;
  14        1        1        0;
  15        1        1        0;
  16        1        1        0;
  17        1        1        0;
  18        1        1        0;
  19        1        1        0;
  20        1        1        0;
  21        1        1        0;
  22        1        1        0;
  23        1        1        0;
  24        1        1        0;
  25        1        1        0;
  26        1        1        0;
  27        1        1        0;
  28        1        1        0;
  29        1        1        0;
  30        1    1.047        0;
  31        1    0.982        0;
  32        1    0.983        0;
  33        1    0.997        0;
  34        1    1.012        0;
  35        1    1.049        0;
  36        1    1.063        0;
  37        1    1.027        0;
  38        1    1.026        0;
  39        1     1.03        0];


SW.con = [ ...
  31      100        1    0.982        0        0        0        0        0    5.728  1]; 


PV.con = [ ...
  30      100        1      2.5    1.047       99      -99      1.2      0.8  1;
  32      100        1      6.5    0.983       99      -99      1.2      0.8  1;
  33      100        1     6.32    0.997       99      -99      1.2      0.8  1;
  34      100        1     5.08    1.012       99      -99      1.2      0.8  1;
  35      100        1      6.5    1.049       99      -99      1.2      0.8  1;
  36      100        1      5.6    1.063       99      -99      1.2      0.8  1;
  37      100        1      5.4    1.027       99      -99      1.2      0.8  1;
  38      100        1      8.3    1.026       99      -99      1.2      0.8  1;
  39      100        1       10     1.03        0        0        0        0  1]; 


PQ.con = [ ...
   3      100        1     3.22    0.024      1.2      0.8  0;  
   4      100        1        5     1.84      1.2      0.8  0;  
   7      100        1    2.338     0.84      1.2      0.8  0;  
   8      100        1     5.22     1.76      1.2      0.8  0;  
  12      100        1    0.085     0.88      1.2      0.8  0;  
  15      100        1      3.2     1.53      1.2      0.8  0;  
  16      100        1     3.29    0.323      1.2      0.8  0;  
  18      100        1     1.58      0.3      1.2      0.8  0;  
  20      100        1      6.8     1.03      1.2      0.8  0;  
  21      100        1     2.74     1.15      1.2      0.8  0;  
  23      100        1    2.475    0.846      1.2      0.8  0;  
  24      100        1    3.086   -0.922      1.2      0.8  0;  
  25      100        1     2.24    0.472      1.2      0.8  0;  
  26      100        1     1.39     0.17      1.2      0.8  0;  
  27      100        1     2.81    0.755      1.2      0.8  0;  
  28      100        1     2.06    0.276      1.2      0.8  0;  
  29      100        1    2.835    0.269      1.2      0.8  0;  
  31      100        1    0.092    0.046      1.2      0.8  0;  
  39      100        1    11.04      2.5        0        0  0]; 


Line.con = [ ...
   2    1      100        1       60        0        0   0.0035   0.0411   0.6987        1        0        0;
  39    1      100        1       60        0        0    0.001    0.025     0.75        1        0        0;
   3    2      100        1       60        0        0   0.0013   0.0151   0.2572        1        0        0;
  25    2      100        1       60        0        0    0.007   0.0086    0.146        1        0        0;
   4    3      100        1       60        0        0   0.0013   0.0213   0.2214        1        0        0;
  18    3      100        1       60        0        0   0.0011   0.0133   0.2138        1        0        0;
   5    4      100        1       60        0        0   0.0008   0.0128   0.1342        1        0        0;
  14    4      100        1       60        0        0   0.0008   0.0129   0.1382        1        0        0;
   6    5      100        1       60        0        0   0.0002   0.0026   0.0434        1        0        0;
   8    5      100        1       60        0        0   0.0008   0.0112   0.1476        1        0        0;
   7    6      100        1       60        0        0   0.0006   0.0092    0.113        1        0        0;
  11    6      100        1       60        0        0   0.0007   0.0082   0.1389        1        0        0;
   8    7      100        1       60        0        0   0.0004   0.0046    0.078        1        0        0;
   9    8      100        1       60        0        0   0.0023   0.0363   0.3804        1        0        0;
  39    9      100        1       60        0        0    0.001    0.025      1.2        1        0        0;
  11   10      100        1       60        0        0   0.0004   0.0043   0.0729        1        0        0;
  13   10      100        1       60        0        0   0.0004   0.0043   0.0729        1        0        0;
  14   13      100        1       60        0        0   0.0009   0.0101   0.1723        1        0        0;
  15   14      100        1       60        0        0   0.0018   0.0217    0.366        1        0        0;
  16   15      100        1       60        0        0   0.0009   0.0094    0.171        1        0        0;
  17   16      100        1       60        0        0   0.0007   0.0089   0.1342        1        0        0;
  19   16      100        1       60        0        0   0.0016   0.0195    0.304        1        0        0;
  21   16      100        1       60        0        0   0.0008   0.0135   0.2548        1        0        0;
  24   16      100        1       60        0        0   0.0003   0.0059    0.068        1        0        0;
  18   17      100        1       60        0        0   0.0007   0.0082   0.1319        1        0        0;
  27   17      100        1       60        0        0   0.0013   0.0173   0.3216        1        0        0;
  22   21      100        1       60        0        0   0.0008    0.014   0.2565        1        0        0;
  23   22      100        1       60        0        0   0.0006   0.0096   0.1846        1        0        0;
  24   23      100        1       60        0        0   0.0022    0.035    0.361        1        0        0;
  26   25      100        1       60        0        0   0.0032   0.0323    0.513        1        0        0;
  27   26      100        1       60        0        0   0.0014   0.0147   0.2396        1        0        0;
  28   26      100        1       60        0        0   0.0043   0.0474   0.7802        1        0        0;
  29   26      100        1       60        0        0   0.0057   0.0625    1.029        1        0        0;
  29   28      100        1       60        0        0   0.0014   0.0151    0.249        1        0        0;
  12   11      100        1       60        0        0   0.0016   0.0435        0    1.006        0        0;
  12   13      100        1       60        0        0   0.0016   0.0435        0    1.006        0        0;
   6   31      100        1       60        0        0        0    0.025        0     1.07        0        0;
  10   32      100        1       60        0        0        0     0.02        0     1.07        0        0;
  19   33      100        1       60        0        0   0.0007   0.0142        0     1.07        0        0;
  20   34      100        1       60        0        0   0.0009    0.018        0    1.009        0        0;
  22   35      100        1       60        0        0        0   0.0143        0    1.025        0        0;
  23   36      100        1       60        0        0   0.0005   0.0272        0        1        0        0;
  25   37      100        1       60        0        0   0.0006   0.0232        0    1.025        0        0;
   2   30      100        1       60        0        0        0   0.0181        0    1.025        0        0;
  29   38      100        1       60        0        0   0.0008   0.0156        0    1.025        0        0;
  19   20      100        1       60        0        0   0.0007   0.0138        0     1.06        0        0];


